/*--------------------------------*- C++ -*----------------------------------*\
| =========                 |                                                 |
| \\      /  F ield         | OpenFOAM Extend Project: Open source CFD        |
|  \\    /   O peration     | Version:  1.6-ext                               |
|   \\  /    A nd           | Web:      www.extend-project.de                 |
|    \\/     M anipulation  |                                                 |
\*---------------------------------------------------------------------------*/
FoamFile
{
    version     2.0;
    format      ascii;
    class       dictionary;
    location    "constant";
    object      crossSections;
}
// * * * * * * * * * * * * * * * * * * * * * * * * * * * * * * * * * * * * * //

inverseNeutronVelocity "1|v" [ 0 -1 1 0 0 0 0 ] ( 4.00354e-08 7.39836e-08 2.61771e-07 6.6932e-07 1.55869e-06 4.2482e-06 );

D               D [ 0 1 0 0 0 0 0 ] ( 0.0279879 0.0183888 0.0113037 0.0144711 0.0139678 0.0128218 );

diffusionCoeff  D [ 0 1 0 0 0 0 0 ] ( 0.0279879 0.0183888 0.0113037 0.0144711 0.0139678 0.0128218 );

sigma_a         sigma_a [ 0 -1 0 0 0 0 0 ] ( 16.562 21.7409 31.8223 24.2231 25.0479 27.2269 );

sigma_f         sigma_f [ 0 -1 0 0 0 0 0 ] ( 0.110872 0.108259 0.151632 0.257198 0.534334 1.44459 );

sigma_s         sigma_s [ 0 -1 0 0 0 0 0 ] ( 10.8535 0 0 0 0 0 5.23916 18.3805 0 0 0 0 0.401722 3.19351 29.8495 0 0 0 0.0110579 0.00233143 1.63638 21.7599 0 0 0.00253893 0.000220079 0.00170452 1.90471 22.7301 0 0.000387752 2.04796e-05 0.000125969 1.49851e-06 1.06095 23.7984 );

chi_p           chi_p [ 0 0 0 0 0 0 0 ] ( 0.353786 0.523698 0.121002 0.00135476 0.000151708 7.90454e-06 );

chi_d           chi_d [ 0 0 0 0 0 0 0 ] ( 0.353786 0.523698 0.121002 0.00135476 0.000151708 7.90454e-06 );

nu_tot          nu_tot [ 0 0 0 0 0 0 0 ] ( 2.85516 2.54533 2.43328 2.43127 2.4333 2.4333 );

E_f             E_f [ 1 2 -2 0 0 0 0 ] ( 3.240722e-11 3.240722e-11 3.240722e-11 3.240722e-11 3.240722e-11 3.240722e-11 );

beta1           beta1 [ 0 0 0 0 0 0 0 ] 0.000224011;

beta2           beta2 [ 0 0 0 0 0 0 0 ] 0.000986466;

beta3           beta3 [ 0 0 0 0 0 0 0 ] 0.000647474;

beta4           beta4 [ 0 0 0 0 0 0 0 ] 0.00130674;

beta5           beta5 [ 0 0 0 0 0 0 0 ] 0.00204495;

beta6           beta6 [ 0 0 0 0 0 0 0 ] 0.00061182;

beta7           beta7 [ 0 0 0 0 0 0 0 ] 0.000573122;

beta8           beta8 [ 0 0 0 0 0 0 0 ] 0.000157219;

lam1            lam1 [ 0 0 -1 0 0 0 0 ] 0.0124667;

lam2            lam2 [ 0 0 -1 0 0 0 0 ] 0.0282917;

lam3            lam3 [ 0 0 -1 0 0 0 0 ] 0.0425244;

lam4            lam4 [ 0 0 -1 0 0 0 0 ] 0.133042;

lam5            lam5 [ 0 0 -1 0 0 0 0 ] 0.292467;

lam6            lam6 [ 0 0 -1 0 0 0 0 ] 0.666488;

lam7            lam7 [ 0 0 -1 0 0 0 0 ] 1.63478;

lam8            lam8 [ 0 0 -1 0 0 0 0 ] 3.5546;

unoSuGamma1     unoSuGamma1 [ 0 0 0 0 0 0 0 ] ( 15.152 15.152 15.152 15.152 15.152 15.152 );

unoSuGamma2     unoSuGamma2 [ 0 0 0 0 0 0 0 ] ( 17.241 17.241 17.241 17.241 17.241 17.241 );

T_ref_xs        T_ref_xs [ 0 0 0 1 0 0 0 ] 900;

D_alpha         D_alpha [ 0 1 0 0 0 0 0 ] ( 0 0 0 0 0 0 );

sigma_a_alpha   sigma_a_alpha [ 0 -1 0 0 0 0 0 ] ( 0 0 0 0 0 0 );

sigma_f_alpha   sigma_f_alpha [ 0 -1 0 0 0 0 0 ] ( 0 0 0 0 0 0 );

sigma_s_alpha   sigma_s_alpha [ 0 -1 0 0 0 0 0 ] ( 0 0 0 0 0 0 0 0 0 0 0 0 0 0 0 0 0 0 0 0 0 0 0 0 0 0 0 0 0 0 0 0 0 0 0 0 );

chi_p_alpha     chi_p_alpha [ 0 0 0 0 0 0 0 ] ( 0 0 0 0 0 0 );

chi_d_alpha     chi_d_alpha [ 0 0 0 0 0 0 0 ] ( 0 0 0 0 0 0 );

nu_tot_alpha    nu_tot_alpha [ 0 0 0 0 0 0 0 ] ( 0 0 0 0 0 0 );

E_f_alpha       E_f_alpha [ 1 2 -2 0 0 0 0 ] ( 0 0 0 0 0 0 );

xsModel         alphaLogTRhok;

T_min_xs        T_min_xs [ 0 0 0 1 0 0 0 ] 600;

decLam1         decLam1 [ 0 0 -1 0 0 0 0 ] 1;

decLam2         decLam2 [ 0 0 -1 0 0 0 0 ] 1;

decLam3         decLam3 [ 0 0 -1 0 0 0 0 ] 1;

decBeta1        decBeta1 [ 0 0 0 0 0 0 0 ] 0;

decBeta2        decBeta2 [ 0 0 0 0 0 0 0 ] 0;

decBeta3        decBeta3 [ 0 0 0 0 0 0 0 ] 0;


// ************************************************************************* //
